%nprocshared=8
%chk=CCCCC.chk
# opt freq=hinderedrotor M062X/6-311++g(d,p) press=0.987 symm=loose

CCCCC_1

0 1
C        2.539832       -0.328618       -0.000002
C        1.275720        0.528066        0.000001
C        0.000000       -0.311546        0.000006
C       -1.275721        0.528066       -0.000002
C       -2.539831       -0.328618       -0.000001
H        3.442705        0.285426       -0.000004
H        2.571175       -0.973034        0.882535
H        2.571172       -0.973036       -0.882539
H        1.274054        1.184185       -0.877124
H        1.274060        1.184196        0.877120
H       -0.000002       -0.969778        0.877607
H        0.000001       -0.969796       -0.877585
H       -1.274054        1.184182       -0.877129
H       -1.274059        1.184199        0.877115
H       -3.442706        0.285425       -0.000008
H       -2.571176       -0.973029        0.882540
H       -2.571170       -0.973041       -0.882534


--Link1--
%chk=CCCCC.chk
# freq=(readfc,hinderedrotor) temp=200 press=0.987 geom=allcheck guess=read

--Link1--
%chk=CCCCC.chk
# freq=(readfc,hinderedrotor) temp=250 press=0.987 geom=allcheck guess=read

--Link1--
%chk=CCCCC.chk
# freq=(readfc,hinderedrotor) temp=300 press=0.987 geom=allcheck guess=read

--Link1--
%chk=CCCCC.chk
# freq=(readfc,hinderedrotor) temp=350 press=0.987 geom=allcheck guess=read

--Link1--
%chk=CCCCC.chk
# freq=(readfc,hinderedrotor) temp=400 press=0.987 geom=allcheck guess=read

--Link1--
%chk=CCCCC.chk
# freq=(readfc,hinderedrotor) temp=450 press=0.987 geom=allcheck guess=read

--Link1--
%chk=CCCCC.chk
# freq=(readfc,hinderedrotor) temp=500 press=0.987 geom=allcheck guess=read

--Link1--
%chk=CCCCC.chk
# freq=(readfc,hinderedrotor) temp=550 press=0.987 geom=allcheck guess=read

--Link1--
%chk=CCCCC.chk
# freq=(readfc,hinderedrotor) temp=600 press=0.987 geom=allcheck guess=read

--Link1--
%chk=CCCCC.chk
# freq=(readfc,hinderedrotor) temp=650 press=0.987 geom=allcheck guess=read

--Link1--
%chk=CCCCC.chk
# freq=(readfc,hinderedrotor) temp=700 press=0.987 geom=allcheck guess=read

--Link1--
%chk=CCCCC.chk
# freq=(readfc,hinderedrotor) temp=750 press=0.987 geom=allcheck guess=read

--Link1--
%chk=CCCCC.chk
# freq=(readfc,hinderedrotor) temp=800 press=0.987 geom=allcheck guess=read

--Link1--
%chk=CCCCC.chk
# freq=(readfc,hinderedrotor) temp=850 press=0.987 geom=allcheck guess=read

--Link1--
%chk=CCCCC.chk
# freq=(readfc,hinderedrotor) temp=900 press=0.987 geom=allcheck guess=read

--Link1--
%chk=CCCCC.chk
# freq=(readfc,hinderedrotor) temp=950 press=0.987 geom=allcheck guess=read

--Link1--
%chk=CCCCC.chk
# freq=(readfc,hinderedrotor) temp=1000 press=0.987 geom=allcheck guess=read

--Link1--
%chk=CCCCC.chk
# freq=(readfc,hinderedrotor) temp=1050 press=0.987 geom=allcheck guess=read

--Link1--
%chk=CCCCC.chk
# freq=(readfc,hinderedrotor) temp=1100 press=0.987 geom=allcheck guess=read

--Link1--
%chk=CCCCC.chk
# freq=(readfc,hinderedrotor) temp=1150 press=0.987 geom=allcheck guess=read

--Link1--
%chk=CCCCC.chk
# freq=(readfc,hinderedrotor) temp=1200 press=0.987 geom=allcheck guess=read

--Link1--
%chk=CCCCC.chk
# freq=(readfc,hinderedrotor) temp=1250 press=0.987 geom=allcheck guess=read

--Link1--
%chk=CCCCC.chk
# freq=(readfc,hinderedrotor) temp=1300 press=0.987 geom=allcheck guess=read

--Link1--
%chk=CCCCC.chk
# freq=(readfc,hinderedrotor) temp=1350 press=0.987 geom=allcheck guess=read

--Link1--
%chk=CCCCC.chk
# freq=(readfc,hinderedrotor) temp=1400 press=0.987 geom=allcheck guess=read

--Link1--
%chk=CCCCC.chk
# freq=(readfc,hinderedrotor) temp=1450 press=0.987 geom=allcheck guess=read

--Link1--
%chk=CCCCC.chk
# freq=(readfc,hinderedrotor) temp=1500 press=0.987 geom=allcheck guess=read

--Link1--
%chk=CCCCC.chk
# freq=(readfc,hinderedrotor) temp=1550 press=0.987 geom=allcheck guess=read

--Link1--
%chk=CCCCC.chk
# freq=(readfc,hinderedrotor) temp=1600 press=0.987 geom=allcheck guess=read

--Link1--
%chk=CCCCC.chk
# freq=(readfc,hinderedrotor) temp=1650 press=0.987 geom=allcheck guess=read

--Link1--
%chk=CCCCC.chk
# freq=(readfc,hinderedrotor) temp=1700 press=0.987 geom=allcheck guess=read

--Link1--
%chk=CCCCC.chk
# freq=(readfc,hinderedrotor) temp=1750 press=0.987 geom=allcheck guess=read

--Link1--
%chk=CCCCC.chk
# freq=(readfc,hinderedrotor) temp=1800 press=0.987 geom=allcheck guess=read

--Link1--
%chk=CCCCC.chk
# freq=(readfc,hinderedrotor) temp=1850 press=0.987 geom=allcheck guess=read

--Link1--
%chk=CCCCC.chk
# freq=(readfc,hinderedrotor) temp=1900 press=0.987 geom=allcheck guess=read

--Link1--
%chk=CCCCC.chk
# freq=(readfc,hinderedrotor) temp=1950 press=0.987 geom=allcheck guess=read

--Link1--
%chk=CCCCC.chk
# freq=(readfc,hinderedrotor) temp=2000 press=0.987 geom=allcheck guess=read

--Link1--
%chk=CCCCC.chk
# freq=(readfc,hinderedrotor) temp=2050 press=0.987 geom=allcheck guess=read

--Link1--
%chk=CCCCC.chk
# freq=(readfc,hinderedrotor) temp=2100 press=0.987 geom=allcheck guess=read

--Link1--
%chk=CCCCC.chk
# freq=(readfc,hinderedrotor) temp=2150 press=0.987 geom=allcheck guess=read

--Link1--
%chk=CCCCC.chk
# freq=(readfc,hinderedrotor) temp=2200 press=0.987 geom=allcheck guess=read

--Link1--
%chk=CCCCC.chk
# freq=(readfc,hinderedrotor) temp=2250 press=0.987 geom=allcheck guess=read

--Link1--
%chk=CCCCC.chk
# freq=(readfc,hinderedrotor) temp=2300 press=0.987 geom=allcheck guess=read

--Link1--
%chk=CCCCC.chk
# freq=(readfc,hinderedrotor) temp=2350 press=0.987 geom=allcheck guess=read

--Link1--
%chk=CCCCC.chk
# freq=(readfc,hinderedrotor) temp=2400 press=0.987 geom=allcheck guess=read

--Link1--
%chk=CCCCC.chk
# freq=(readfc,hinderedrotor) temp=2450 press=0.987 geom=allcheck guess=read

--Link1--
%chk=CCCCC.chk
# freq=(readfc,hinderedrotor) temp=2500 press=0.987 geom=allcheck guess=read

--Link1--
%chk=CCCCC.chk
# freq=(readfc,hinderedrotor) temp=2550 press=0.987 geom=allcheck guess=read

--Link1--
%chk=CCCCC.chk
# freq=(readfc,hinderedrotor) temp=2600 press=0.987 geom=allcheck guess=read

--Link1--
%chk=CCCCC.chk
# freq=(readfc,hinderedrotor) temp=2650 press=0.987 geom=allcheck guess=read

--Link1--
%chk=CCCCC.chk
# freq=(readfc,hinderedrotor) temp=2700 press=0.987 geom=allcheck guess=read

--Link1--
%chk=CCCCC.chk
# freq=(readfc,hinderedrotor) temp=2750 press=0.987 geom=allcheck guess=read

--Link1--
%chk=CCCCC.chk
# freq=(readfc,hinderedrotor) temp=2800 press=0.987 geom=allcheck guess=read

--Link1--
%chk=CCCCC.chk
# freq=(readfc,hinderedrotor) temp=2850 press=0.987 geom=allcheck guess=read

--Link1--
%chk=CCCCC.chk
# freq=(readfc,hinderedrotor) temp=2900 press=0.987 geom=allcheck guess=read

--Link1--
%chk=CCCCC.chk
# freq=(readfc,hinderedrotor) temp=2950 press=0.987 geom=allcheck guess=read

--Link1--
%chk=CCCCC.chk
# freq=(readfc,hinderedrotor) temp=3000 press=0.987 geom=allcheck guess=read

--Link1--
%chk=CCCCC.chk
# freq=(readfc,hinderedrotor) temp=3050 press=0.987 geom=allcheck guess=read

--Link1--
%chk=CCCCC.chk
# freq=(readfc,hinderedrotor) temp=3100 press=0.987 geom=allcheck guess=read

--Link1--
%chk=CCCCC.chk
# freq=(readfc,hinderedrotor) temp=3150 press=0.987 geom=allcheck guess=read

--Link1--
%chk=CCCCC.chk
# freq=(readfc,hinderedrotor) temp=3200 press=0.987 geom=allcheck guess=read

--Link1--
%chk=CCCCC.chk
# freq=(readfc,hinderedrotor) temp=3250 press=0.987 geom=allcheck guess=read

--Link1--
%chk=CCCCC.chk
# freq=(readfc,hinderedrotor) temp=3300 press=0.987 geom=allcheck guess=read

--Link1--
%chk=CCCCC.chk
# freq=(readfc,hinderedrotor) temp=3350 press=0.987 geom=allcheck guess=read

--Link1--
%chk=CCCCC.chk
# freq=(readfc,hinderedrotor) temp=3400 press=0.987 geom=allcheck guess=read

--Link1--
%chk=CCCCC.chk
# freq=(readfc,hinderedrotor) temp=3450 press=0.987 geom=allcheck guess=read

--Link1--
%chk=CCCCC.chk
# freq=(readfc,hinderedrotor) temp=3500 press=0.987 geom=allcheck guess=read

--Link1--
%chk=CCCCC.chk
# freq=(readfc,hinderedrotor) temp=3550 press=0.987 geom=allcheck guess=read

--Link1--
%chk=CCCCC.chk
# freq=(readfc,hinderedrotor) temp=3600 press=0.987 geom=allcheck guess=read

--Link1--
%chk=CCCCC.chk
# freq=(readfc,hinderedrotor) temp=3650 press=0.987 geom=allcheck guess=read

--Link1--
%chk=CCCCC.chk
# freq=(readfc,hinderedrotor) temp=3700 press=0.987 geom=allcheck guess=read

--Link1--
%chk=CCCCC.chk
# freq=(readfc,hinderedrotor) temp=3750 press=0.987 geom=allcheck guess=read

--Link1--
%chk=CCCCC.chk
# freq=(readfc,hinderedrotor) temp=3800 press=0.987 geom=allcheck guess=read

--Link1--
%chk=CCCCC.chk
# freq=(readfc,hinderedrotor) temp=3850 press=0.987 geom=allcheck guess=read

--Link1--
%chk=CCCCC.chk
# freq=(readfc,hinderedrotor) temp=3900 press=0.987 geom=allcheck guess=read

--Link1--
%chk=CCCCC.chk
# freq=(readfc,hinderedrotor) temp=3950 press=0.987 geom=allcheck guess=read

--Link1--
%chk=CCCCC.chk
# freq=(readfc,hinderedrotor) temp=4000 press=0.987 geom=allcheck guess=read

--Link1--
%chk=CCCCC.chk
# freq=(readfc,hinderedrotor) temp=4050 press=0.987 geom=allcheck guess=read

--Link1--
%chk=CCCCC.chk
# freq=(readfc,hinderedrotor) temp=4100 press=0.987 geom=allcheck guess=read

--Link1--
%chk=CCCCC.chk
# freq=(readfc,hinderedrotor) temp=4150 press=0.987 geom=allcheck guess=read

--Link1--
%chk=CCCCC.chk
# freq=(readfc,hinderedrotor) temp=4200 press=0.987 geom=allcheck guess=read

--Link1--
%chk=CCCCC.chk
# freq=(readfc,hinderedrotor) temp=4250 press=0.987 geom=allcheck guess=read

--Link1--
%chk=CCCCC.chk
# freq=(readfc,hinderedrotor) temp=4300 press=0.987 geom=allcheck guess=read

--Link1--
%chk=CCCCC.chk
# freq=(readfc,hinderedrotor) temp=4350 press=0.987 geom=allcheck guess=read

--Link1--
%chk=CCCCC.chk
# freq=(readfc,hinderedrotor) temp=4400 press=0.987 geom=allcheck guess=read

--Link1--
%chk=CCCCC.chk
# freq=(readfc,hinderedrotor) temp=4450 press=0.987 geom=allcheck guess=read

--Link1--
%chk=CCCCC.chk
# freq=(readfc,hinderedrotor) temp=4500 press=0.987 geom=allcheck guess=read

--Link1--
%chk=CCCCC.chk
# freq=(readfc,hinderedrotor) temp=4550 press=0.987 geom=allcheck guess=read

--Link1--
%chk=CCCCC.chk
# freq=(readfc,hinderedrotor) temp=4600 press=0.987 geom=allcheck guess=read

--Link1--
%chk=CCCCC.chk
# freq=(readfc,hinderedrotor) temp=4650 press=0.987 geom=allcheck guess=read

--Link1--
%chk=CCCCC.chk
# freq=(readfc,hinderedrotor) temp=4700 press=0.987 geom=allcheck guess=read

--Link1--
%chk=CCCCC.chk
# freq=(readfc,hinderedrotor) temp=4750 press=0.987 geom=allcheck guess=read

--Link1--
%chk=CCCCC.chk
# freq=(readfc,hinderedrotor) temp=4800 press=0.987 geom=allcheck guess=read

--Link1--
%chk=CCCCC.chk
# freq=(readfc,hinderedrotor) temp=4850 press=0.987 geom=allcheck guess=read

--Link1--
%chk=CCCCC.chk
# freq=(readfc,hinderedrotor) temp=4900 press=0.987 geom=allcheck guess=read

--Link1--
%chk=CCCCC.chk
# freq=(readfc,hinderedrotor) temp=4950 press=0.987 geom=allcheck guess=read

--Link1--
%chk=CCCCC.chk
# freq=(readfc,hinderedrotor) temp=5000 press=0.987 geom=allcheck guess=read
