  11
         -1.51553837
 C          1.2653627164       -0.2682634552       -0.0000034281
 C         -0.0000070496        0.5767177920        0.0000019027
 C         -1.2653543920       -0.2682725336        0.0000048679
 H          1.3081374915       -0.9156926130       -0.8784569027
 H          2.1702109900        0.3446411632        0.0002627047
 H          1.3079114745       -0.9160490267        0.8781978786
 H         -0.0000047227        1.2476361547       -0.8715298712
 H         -0.0000017027        1.2476644261        0.8715109743
 H         -2.1701979179        0.3446416280       -0.0002692906
 H         -1.3081348529       -0.9156746847        0.8784759709
 H         -1.3079359511       -0.9160078435       -0.8782312972
