  14
         -1.95933513
 C          1.9450686335        0.1311158294        0.0001022824
 C          0.5674734092       -0.5132693688       -0.0000967078
 C         -0.5674764509        0.5132642425       -0.0001086830
 C         -1.9450639340       -0.1311204489        0.0000923283
 H          2.0849684000        0.7647324525        0.8784987813
 H          2.7466768474       -0.6116664521        0.0001619384
 H          2.0852762226        0.7646807681       -0.8782859953
 H          0.4586778728       -1.1739987227        0.8707804992
 H          0.4588417366       -1.1738249114       -0.8711284225
 H         -0.4588265532        1.1738211953       -0.8711385914
 H         -0.4586847778        1.1740055841        0.8707633043
 H         -2.0851455637       -0.7649206136       -0.8781438397
 H         -2.7466666734        0.6116728504       -0.0000969041
 H         -2.0851372682       -0.7643860113        0.8787176948
