  21
         -3.70001751
 C          3.7860828095       -0.0000116374        0.2343558900
 C          2.3013246216       -0.0000676962        0.5602235785
 C          1.4194414331        0.0001012817       -0.6896209497
 C         -0.0463041117        0.0000484115       -0.3676336463
 C         -0.7310295729        1.1934795591       -0.1904048439
 C         -2.0710297174        1.1940884245        0.1412552501
 C         -2.7422689493       -0.0000549668        0.3060886862
 C         -2.0709093815       -1.1941458269        0.1413687716
 C         -0.7309480870       -1.1934345568       -0.1904456901
 H          4.4045962913       -0.0001297945        1.1349981574
 H          4.0614916944        0.8783752088       -0.3527271323
 H          4.0615052248       -0.8782338847       -0.3529669180
 H          2.0478990591        0.8704268853        1.1800841731
 H          2.0479106217       -0.8707376367        1.1798423150
 H          1.6555595102       -0.8706719606       -1.3124260815
 H          1.6555490623        0.8710547493       -1.3121778056
 H         -0.2034057181        2.1243876691       -0.3118129725
 H         -2.5925133101        2.1282103560        0.2739131128
 H         -3.7885364211       -0.0000958911        0.5660160938
 H         -2.5924982544       -2.1283099337        0.2733137116
 H         -0.2035012871       -2.1243114301       -0.3128585340
