  14
         -1.95933513
 C         -1.9450511882        0.1311181442       -0.0000000000
 C         -0.5674911568       -0.5132679631       -0.0000000000
 C          0.5674909015        0.5132696569        0.0000000000
 C          1.9450514413       -0.1311194966        0.0000000000
 H         -2.7466894960       -0.6116370890       -0.0000000001
 H         -2.0851447863        0.7646838488        0.8784063022
 H         -2.0851447862        0.7646838485       -0.8784063024
 H         -0.4587550854       -1.1739089196       -0.8709545334
 H         -0.4587550855       -1.1739089193        0.8709545338
 H          0.4587554012        1.1739027927        0.8709599960
 H          0.4587554012        1.1739027925       -0.8709599962
 H          2.7466851201        0.6116407683       -0.0000000000
 H          2.0851466719       -0.7646815958       -0.8784083585
 H          2.0851466720       -0.7646815955        0.8784083586
