  17
         -2.40316995
 C          2.5400356648       -0.3290921796        0.0000000002
 C          1.2762450533        0.5167873048       -0.0000000001
 C          0.0000003410       -0.3263443046       -0.0000000002
 C         -1.2762451758        0.5167890344        0.0000000001
 C         -2.5400360691       -0.3290928968        0.0000000001
 H          3.4451206726        0.2833738553        0.0000000002
 H          2.5822069144       -0.9766226341        0.8783820964
 H          2.5822069147       -0.9766226343       -0.8783820960
 H          1.2688733681        1.1861081340       -0.8710527784
 H          1.2688733679        1.1861081342        0.8710527778
 H         -0.0000004193       -0.9945837795        0.8703111411
 H         -0.0000004193       -0.9945837793       -0.8703111418
 H         -1.2688722998        1.1861014881       -0.8710585505
 H         -1.2688722997        1.1861014881        0.8710585506
 H         -3.4451175227        0.2833783243        0.0000000001
 H         -2.5822080312       -0.9766220879        0.8783827860
 H         -2.5822080313       -0.9766220880       -0.8783827858
